/*--------------------------------*- C++ -*----------------------------------*\
| =========                 |                                                 |
| \\      /  F ield         | OpenFOAM: The Open Source CFD Toolbox           |
|  \\    /   O peration     | Version:  v2112                                 |
|   \\  /    A nd           | Website:  www.openfoam.com                      |
|    \\/     M anipulation  |                                                 |
\*---------------------------------------------------------------------------*/
FoamFile
{
    version     2.0;
    format      ascii;
    class       dictionary;
    object      blockMeshDict;
}
// * * * * * * * * * * * * * * * * * * * * * * * * * * * * * * * * * * * * * //
                             
                     
scale   1;

vertices
(
	(-0.4 -0.4 -0.01)    // pt 0
    (-0.0707 -0.4 -0.01)    // pt 1
    (0.0707 -0.4 -0.01)    // pt 2
    (1 -0.4 -0.01)   // pt 3
    (1 -0.0707 -0.01)    // pt 4
    (1 0.0707 -0.01)    // pt 5
    (1 0.4 -0.01)    // pt 6
    (0.0707 0.4 -0.01)   // pt 7
    (-0.0707 0.4 -0.01)   // pt 8
    (-0.4 0.4 -0.01)     // pt 9
    (-0.4 0.0707 -0.01)    // pt 10
    (-0.4 -0.0707 -0.01)    // pt 11
    (-0.0707 -0.0707 -0.01)    // pt 12
    (0.0707 -0.0707 -0.01)    // pt 13
    (0.0707 0.0707 -0.01)    // pt 14
    (-0.0707 0.0707 -0.01)  // pt 15
    (-0.01414 -0.01414 -0.01)    // pt 16
    (0.014 -0.01414 -0.01)   // pt 17
    (0.01414 0.01414 -0.01)    // pt 18
    (-0.01414 0.01414 -0.01)  // pt 19

    (-0.4 -0.4 0.01)  // pt 20 (p0b) 
    (-0.0707 -0.4 0.01)  // pt 21 (p1b) 
    (0.0707 -0.4 0.01)  // pt 22 (p2b) 
    (1 -0.4 0.01)  // pt 23 (p3b) 
    (1 -0.0707 0.01)  // pt 24 (p4b) 
    (1 0.0707 0.01)  // pt 25 (p5b) 
    (1 0.4 0.01)  // pt 26 (p6b) 
    (0.0707 0.4 0.01)  // pt 27 (p7b) 
    (-0.0707 0.4 0.01)  // pt 28 (p8b) 
    (-0.4 0.4 0.01)  // pt 29 (p9b) 
    (-0.4 0.0707 0.01)  // pt 30 (p10b) 
    (-0.4 -0.0707 0.01)  // pt 31 (p11b) 
    (-0.0707 -0.0707 0.01)  // pt 32 (p12b) 
    (0.0707 -0.0707 0.01)  // pt 33 (p13b) 
    (0.0707 0.0707 0.01)  // pt 34 (p14b) 
    (-0.0707 0.0707 0.01)  // pt 35 (p15b) 
    (-0.01414 -0.01414 0.01)  // pt 36 (p16b) 
    (0.01414 -0.01414 0.01)  // pt 37 (p17b) 
    (0.01414 0.01414 0.01)  // pt 38 (p18b) 
    (-0.01414 0.01414 0.01)  // pt 39 (p19b) 
);

blocks
(
    // 0
    hex (0 1 12 11 20 21 32 31)
    ( 50 50 1 ) simpleGrading (0.2 0.2 1)

    // 1
    hex (1 2 13 12 21 22 33 32)
    ( 40 50 1) simpleGrading (1 0.2 1)

    // 2
    hex (2 3 4 13 22 23 24 33)
    ( 100 50 1 ) simpleGrading (5 0.2 1)

    // 3
    hex (13 4 5 14 33 24 25 34)
    ( 100 40 1) simpleGrading (5 1 1)

    // 4
    hex (14 5 6 7 34 25 26 27)
    ( 100 50 1 ) simpleGrading (5 5 1)

    // 5
    hex (15 14 7 8 35 34 27 28)
    ( 40 50 1) simpleGrading (1 5 1)

    // 6
    hex (10 15 8 9 30 35 28 29)
    ( 50 50 1) simpleGrading (0.2 5 1)

    // 7
    hex (11 12 15 10 31 32 35 30)
    ( 50 40 1 ) simpleGrading (0.2 1 1)

    // 8
    hex (12 16 19 15 32 36 39 35)
    ( 50 40 1 ) simpleGrading (0.2 1 1)

    // 9
    hex (12 13 17 16 32 33 37 36)
    ( 40 50 1) simpleGrading (1 0.2 1)

    // 10
    hex (17 13 14 18 37 33 34 38)
    ( 50 40 1 ) simpleGrading (5 1 1)

    // 11
    hex (19 18 14 15 39 38 34 35)
    ( 40 50 1 ) simpleGrading (1 5 1)
);

edges
(
    // Inner circle
    arc  16 17 (0 -0.02 -0.01)
    arc  17 18 (0.02 0 -0.01)
    arc  18 19 (0 0.02 -0.01)
    arc  19 16 (-0.02 0 -0.01)

    arc  36 37 (0 -0.02 0.01)
    arc  37 38 (0.02 0 0.01)
    arc  38 39 (0 0.02 0.01)
    arc  39 36 (-0.02 0 0.01)

    // Outer circle
    arc  12 13 (0 -0.1 -0.01)
    arc  13 14 (0.1 0 -0.01)
    arc  14 15 (0 0.1 -0.01)
    arc  15 12(-0.1 0 -0.01)

    arc  32 33 (0 -0.1 0.01)
    arc  33 34 (0.1 0 0.01)
    arc  34 35 (0 0.1 0.01)
    arc  35 32(-0.1 0 0.01)
);


boundary
(
    inlet
    {
        type        patch;
        faces
        (
            (9 29 30 10)
            (10 30 31 11)
            (11 31 20 0)
        );
    }
    outlet
    {
        type        patch;
        faces
        (
            (3 23 24 4)
            (4 24 25 5)
            (5 25 26 6)
        );
    }

    cylinder
    {
        type        wall;
        faces
        (
            (16 36 37 17)
            (17 37 38 18)
            (18 38 39 19)
            (19 39 36 16)
        );
    }

    top
    {
        type        symmetry;
        faces
        (
            (6 26 27 7)
            (7 27 28 8)
            (8 28 29 9)
        );
    }

    bottom
    {
        type        symmetry;
        faces
        (
            (0 20 21 1)
            (1 21 22 2)
            (2 22 23 3)
        );
    }
	
	back
    {
        type        empty;
        faces
        (
            (0 1 12 11)
            (11 12 15 10)
            (10 15 8 9)
			
			(1 2 13 12)
			(12 13 17 16)
			(13 14 18 17)
			(14 15 19 18)
			(15 12 16 19)
			(15 14 7 8)
			
			(2 3 4 13)
            (13 4 5 14)
            (14 5 6 7)
        );
    }
	
	front
    {
        type        empty;
        faces
        (
            (20 21 32 31)
            (31 32 35 30)
            (30 35 28 29)
			
			(21 22 33 32)
			(32 33 37 36)
			(33 34 38 37)
			(34 35 39 38)
			(35 32 36 39)
			(35 34 27 28)
			
			(22 23 24 33)
            (33 24 25 34)
            (34 25 26 27)
        );
    }
);

mergePatchPairs
(
);

// ************************************************************************* //
