/*--------------------------------*- C++ -*----------------------------------*\
| =========                 |                                                 |
| \\      /  F ield         | OpenFOAM: The Open Source CFD Toolbox           |
|  \\    /   O peration     | Version:  v2112                                     |
|   \\  /    A nd           | Web:      www.OpenFOAM.org                      |
|    \\/     M anipulation  |                                                 |
\*---------------------------------------------------------------------------*/
FoamFile
{
    version     2.0;
    format      ascii;
    class       dictionary;
    location    "system";
    object      controlDict;
}
// * * * * * * * * * * * * * * * * * * * * * * * * * * * * * * * * * * * * * //

application     pimpleFoam;

startFrom       latestTime;

startTime       0;

stopAt          endTime;

endTime         350;

deltaT          1e-5;

writeControl    adjustableRunTime;

writeInterval   1;

purgeWrite      0;

writeFormat     ascii;

writePrecision  6;

writeCompression off;

timeFormat      general;

timePrecision   6;

runTimeModifiable true;

adjustTimeStep  yes;

maxCo           0.8;

functions
{
    
    #include "forceCoeffs"
	
	vorticity1
    {
        type            vorticity;
        libs            (fieldFunctionObjects);
        writeControl    writeTime;
    }
	
	meshInterp1
    {
        // Mandatory entries
        type            mapFields;
        libs            (fieldFunctionObjects);
        mapRegion       coarseMesh;
        mapMethod       cellVolumeWeight;
		patchMap  ();
		cuttingPatches   ( );
        consistent      no;
        fields          (U p); 
        writeControl    writeTime;
    }
	
}

// ************************************************************************* //
